ttt/ppower/bsp1.m
% This file was generated by Sparlectra exportMatPower.jl
function mpc = bsp1
%% MATPOWER Case Format : Version 2
mpc.version = '2';
%%-----  Power Flow Data  -----%%
%% system MVA base
mpc.baseMVA = 100.0;
%% bus data
mpc.bus = [
%bus	type	Pd	Qd	Gs	Bs	area	Vm	Va	baseKV	zone	Vmax	Vmin
1	1	0.0	0.0	0.0	0.0	1	1.0	0.0	110.0	1	1.1	0.9; %Bus: Bus_1 (ID: edd6f953-5e01-4122-8109-f91239c3034c kIdx: 1)
2	3	0.0	0.0	0.0	0.0	1	1.03	0.0	110.0	1	1.1	0.9; %Bus: Bus_2 (slack) (ID: d75b03ae-f9a4-40c5-b7ee-0d7250277419 kIdx: 2)
3	1	2.0	4.0	0.0	0.0	1	1.0	0.0	22.0	1	1.1	0.9; %Bus: Bus_3 (ID: 6c3d75fc-a5aa-4f8e-8a77-7777f70b7b37 kIdx: 3)
4	2	0.0	0.0	0.0	0.0	1	1.02	0.0	110.0	1	1.1	0.9; %Bus: Slack (ID: b3ba7ca3-6249-44c7-9e7f-0a262838e4a9 kIdx: 4)
];
%% generator data
mpc.gen = [
%bus	Pg	Qg	Qmax	Qmin	Vg	mBase	status	Pmax	Pmin	Pc1	Pc2	Qc1min	Qc1max	Qc2min	Qc2max	ramp_agc	ramp_10	ramp_30	ramp_q	apf
1	2.0	-0.5	0	0	1.0	100.0	1	0	0	0.0	0.0	0.0	0.0	0.0	0.0	0.0	0.0	0.0	0.0	0.0; %Gen: Generator_SG1 (ID: edd6f953-5e01-4122-8109-f91239c3034c)
2	6.0	0	15.0	-15.0	1.03	100.0	1	0	0	0.0	0.0	0.0	0.0	0.0	0.0	0.0	0.0	0.0	0.0	0.0; %Gen: SynchronousMachine_VG1 (ID: d75b03ae-f9a4-40c5-b7ee-0d7250277419)
4	0	0	0	0	1.02	100.0	1	0	0	0.0	0.0	0.0	0.0	0.0	0.0	0.0	0.0	0.0	0.0	0.0; %Gen: ExternalNetworkInjection_ExG1 (ID: b3ba7ca3-6249-44c7-9e7f-0a262838e4a9)
];
%% branch data
mpc.branch = [
%fbus	tbus	r	x	b	rateA	rateB	rateC	ratio	angle	status	angmin	angmax
4	2	0.04132231	0.08057851	0.00907567	0	0	0	0.0	0.0	1	-360	360; %Branch: Name: L4_2, Typ: LineC (ID: b8bffe3e-ec0e-45f0-b084-1d0f7c8683e8)
4	1	0.00413223	0.0322314	0.00363027	0	0	0	0.0	0.0	1	-360	360; %Branch: Name: L4_1, Typ: LineC (ID: 47b9b1c0-536e-4588-82ff-ce54238f6823)
2	3	0.0041	0.11992994	-0.00042	0	0	0	1.0	0.0	1	-360	360; %Branch: Name: T1, Typ: Trafo (ID: b914234e-4851-45b4-bbfd-7f26c699c1e3)
];
